/*--------------------------------*- C++ -*----------------------------------*\
| =========                 |                                                 |
| \\      /  F ield         | OpenFOAM: The Open Source CFD Toolbox           |
|  \\    /   O peration     | Version:  4.x                                   |
|   \\  /    A nd           | Web:      www.OpenFOAM.org                      |
|    \\/     M anipulation  |                                                 |
\*---------------------------------------------------------------------------*/
FoamFile
{
    version     2.0;
    format      ascii;
    class       dictionary;
    location    "system";
    object      controlDict;
}
// * * * * * * * * * * * * * * * * * * * * * * * * * * * * * * * * * * * * * //

application     interFoam;

startFrom       latestTime;//startTime

latestTime       2.25;

stopAt          endTime;

endTime         3; //1;

deltaT          0.001;

writeControl    adjustableRunTime;

writeInterval   0.05;

purgeWrite      0;

writeFormat     ascii;

writePrecision  6;

writeCompression uncompressed;

timeFormat      general;

timePrecision   6;

runTimeModifiable yes;

adjustTimeStep  on;

maxCo           1;
maxAlphaCo      1;

maxDeltaT       1;

functions
{
    #includeFunc probes
    #includeFunc singleGraph1
    
 outletFlux
    {
        type            surfaceRegion;
        libs ("libfieldFunctionObjects.so");
        writeControl   timeStep;
        log             true;
        // Output field values as well
        writeFields     false;
        regionType      patch;
        name            outflow;
        operation       sum;

        fields
        (
            rhoPhi
        );
    }

}
// ************************************************************************* //
