/*--------------------------------*- C++ -*----------------------------------*\
| =========                 |                                                 |
| \\      /  F ield         | OpenFOAM: The Open Source CFD Toolbox           |
|  \\    /   O peration     | Version:  4.1                                   |
|   \\  /    A nd           | Web:      www.OpenFOAM.org                      |
|    \\/     M anipulation  |                                                 |
\*---------------------------------------------------------------------------*/
FoamFile
{
    version     2.0;
    format      ascii;
    class       polyBoundaryMesh;
    location    "constant/polyMesh";
    object      boundary;
}
// * * * * * * * * * * * * * * * * * * * * * * * * * * * * * * * * * * * * * //

3
(
    atmosphere
    {
        type            patch;
        nFaces          1304;
        startFace       101151;
    }
    outflow
    {
        type            patch;
        nFaces          62;
        startFace       102455;
    }
    allwall
    {
        type            wall;
        nFaces          11472;
        startFace       102517;
    }
)

// ************************************************************************* //
