/*--------------------------------*- C++ -*----------------------------------*/

// File was generated by SwiftBlock, a Blender 3D addon.

FoamFile
{
    version     2.0;
    format      ascii;
    class       dictionary;
    object      blockMeshDict;
}
// * * * * * * * * * * * * * * * * * * * * * * * * * * * * * * * * * * * * * //

convertToMeters 1.0;

vertices
(
    (2.0 3.0 -5.960464477539063e-08)
    (2.0 0.0 -5.960464477539063e-08)
    (-1.1920928955078125e-07 1.7881393432617188e-07 -5.960464477539063e-08)
    (3.5762786865234375e-07 3.000000476837158 -5.960464477539063e-08)
    (2.000000476837158 2.999999523162842 0.4999999403953552)
    (1.9999992847442627 -5.960464477539062e-07 0.4999999403953552)
    (-3.5762786865234375e-07 3.5762786865234375e-07 0.4999999403953552)
    (5.960464477539063e-08 3.0 0.4999999403953552)
    (2.0 0.30666661262512207 -5.960464477539063e-08)
    (1.0833334922790527 3.0 -5.960464477539063e-08)
    (0.9166669249534607 3.000000238418579 -5.960464477539063e-08)
    (1.0833332538604736 5.960464477539063e-08 -5.960464477539063e-08)
    (0.916666567325592 1.1920928955078125e-07 -5.960464477539063e-08)
    (5.960464477539063e-08 0.30666691064834595 -5.960464477539063e-08)
    (1.999999761581421 0.3066660761833191 0.4999999403953552)
    (1.0833336114883423 2.999999523162842 0.4999999403953552)
    (0.9166668653488159 2.999999761581421 0.4999999403953552)
    (1.0833327770233154 -2.384185791015625e-07 0.4999999403953552)
    (0.9166662096977234 5.960464477539063e-08 0.4999999403953552)
    (-2.384185791015625e-07 0.30666691064834595 0.4999999403953552)
    (1.0833330154418945 0.30666637420654297 0.4999999403953552)
    (0.9166664481163025 0.30666661262512207 0.4999999403953552)
    (1.0833332538604736 0.3066667318344116 -5.960464477539063e-08)
    (0.9166666865348816 0.3066667914390564 -5.960464477539063e-08)
);
blocks
(
    hex (0 8 14 4 9 22 20 15)  (60 1 20) edgeGrading ( 1 1 1 1.0 1 1.0 1.0 1 1 1 1.0 1)
    hex (11 22 20 17 1 8 14 5)  (10 1 20) edgeGrading ( 1 1.0 1.0 1.0 1.0 1.0 1.0 1 1.0 1.0 1 1.0)
    hex (13 23 21 19 2 12 18 6)  (20 1 10) edgeGrading ( 1.0 1 1.0 1.0 1.0 1.0 1.0 1 1.0 1.0 1 1.0)
    hex (7 16 21 19 3 10 23 13)  (20 60 1) edgeGrading ( 1.0 1 1.0 1.0 1.0 1 1.0 1.0 1.0 1.0 1 1)
    hex (9 10 23 22 15 16 21 20)  (5 60 1) edgeGrading ( 1 1 1.0 1 1.0 1.0 1 1 1 1 1.0 1.0)
);

patches
(
    wall leftWall
    (
        (2 6 19 13)
        (13 19 7 3)
    )
    wall rightWall
    (
        (8 14 5 1)
        (4 14 8 0)
    )
    empty defaultFaces
    (
        (23 12 2 13)
        (21 19 6 18)
        (10 23 13 3)
        (14 20 17 5)
        (7 19 21 16)
        (15 20 14 4)
        (0 8 22 9)
        (9 22 23 10)
        (8 1 11 22)
        (16 21 20 15)
    )
    wall lowerWall
    (
        (1 5 17 11)
        (12 18 6 2)
        (20 17 11 22)
        (18 21 23 12)
        (23 21 20 22)
    )
    patch atmosphere
    (
        (10 16 15 9)
        (4 0 9 15)
        (16 10 3 7)
    )
);

edges
(
);

mergePatchPairs
(
);

// ************************************************************************* //
