/*--------------------------------*- C++ -*----------------------------------*\
| =========                 |                                                 |
| \\      /  F ield         | OpenFOAM: The Open Source CFD Toolbox           |
|  \\    /   O peration     | Version:  4.1                                   |
|   \\  /    A nd           | Web:      www.OpenFOAM.org                      |
|    \\/     M anipulation  |                                                 |
\*---------------------------------------------------------------------------*/
FoamFile
{
    version     2.0;
    format      ascii;
    class       polyBoundaryMesh;
    location    "constant/polyMesh";
    object      boundary;
}
// * * * * * * * * * * * * * * * * * * * * * * * * * * * * * * * * * * * * * //

3
(
    atmosphere
    {
        type            patch;
        nFaces          1388;
        startFace       174374;
    }
    outflow
    {
        type            patch;
        nFaces          78;
        startFace       175762;
    }
    allwall
    {
        type            wall;
        nFaces          14130;
        startFace       175840;
    }
)

// ************************************************************************* //
